Version 4.1
SHEET 1 1384 680
WIRE 608 -64 544 -64
WIRE 672 -64 608 -64
WIRE 384 32 208 32
WIRE 608 128 608 -64
WIRE 672 128 608 128
WIRE 208 144 208 32
WIRE 240 144 208 144
WIRE 864 144 736 144
WIRE 1008 144 944 144
WIRE 384 160 384 32
WIRE 384 160 304 160
WIRE 448 160 384 160
WIRE 560 160 512 160
WIRE 672 160 560 160
WIRE 112 176 16 176
WIRE 240 176 192 176
WIRE 560 208 560 160
WIRE 704 208 704 176
WIRE 272 224 272 192
WIRE 560 304 560 288
FLAG -64 176 0
FLAG 672 -144 nano
FLAG 704 112 nano
FLAG 544 -144 0
FLAG 144 -144 nano
FLAG 144 -64 0
FLAG 704 208 0
FLAG 1008 144 Vout
FLAG 272 128 nano
FLAG 272 224 0
FLAG 560 304 0
SYMBOL voltage 32 176 R90
WINDOW 0 -32 56 VBottom 2
WINDOW 3 32 56 Invisible 2
WINDOW 123 0 0 Left 0
WINDOW 39 0 0 Left 0
SYMATTR InstName V2
SYMATTR Value PULSE(0 2V 0 0.01u 0.01u 40m 115m)
SYMBOL res 208 160 R90
WINDOW 0 0 56 VBottom 2
WINDOW 3 32 56 VTop 2
SYMATTR InstName R3
SYMATTR Value 56k
SYMBOL res 528 -160 R0
SYMATTR InstName R2
SYMATTR Value 10k
SYMBOL res 656 -160 R0
SYMATTR InstName R1
SYMATTR Value 39.5k
SYMBOL voltage 144 -160 R0
WINDOW 123 0 0 Left 0
WINDOW 39 0 0 Left 0
SYMATTR InstName V1
SYMATTR Value 5V
SYMBOL res 960 128 R90
WINDOW 0 0 56 VBottom 2
WINDOW 3 32 56 VTop 2
SYMATTR InstName R4
SYMATTR Value 2k7
SYMBOL cap 512 144 R90
WINDOW 0 0 32 VBottom 2
WINDOW 3 32 32 VTop 2
SYMATTR InstName C1
SYMATTR Value 100n
SYMBOL res 576 304 R180
WINDOW 0 36 76 Left 2
WINDOW 3 36 40 Left 2
SYMATTR InstName R5
SYMATTR Value 57k
SYMBOL OpAmps\\LT1466 272 96 R0
SYMATTR InstName U1
SYMBOL OpAmps\\LT1466 704 80 R0
SYMATTR InstName U2
TEXT -88 248 Left 2 !.tran 320ms
